Circuit: * D:\VESC\svm_sim-master\ltspice\sim_caps_foc.asc

c1: Increased Cpar to 1.36e-09
c2: Increased Cpar to 2.5e-11
i1: Removing PWL point (0.00302485,100)
i1: Removing PWL point (0.00307485,100)
i1: Removing PWL point (0.00502475,100)
i1: Removing PWL point (0.00507475,100)
i1: Removing PWL point (0.00702465,100)
i1: Removing PWL point (0.00707465,100)
i1: Removing PWL point (0.00902455,100)
i1: Removing PWL point (0.00907455,100)
i1: Removing PWL point (0.0110244,100)
i1: Removing PWL point (0.0110745,100)
Direct Newton iteration for .op point succeeded.

Date: Wed Feb 22 09:39:47 2023
Total elapsed time: 0.340 seconds.

tnom = 27
temp = 27
method = modified trap
totiter = 139991
traniter = 139988
tranpoints = 69995
accept = 49285
rejected = 20710
matrix size = 3
fillins = 0
solver = Normal
Avg thread counts: 1.0/1.0/1.0/1.0
Matrix Compiler1:       6 opcodes  0.2/[0.1]/0.2
Matrix Compiler2: 189 bytes object code size  0.1/0.2/[0.1]

