Circuit: * D:\VESC\svm_sim-master\ltspice\sim_caps.asc

WARNING: Node N002 is floating.

Direct Newton iteration for .op point succeeded.

Date: Wed Feb 22 14:14:41 2023
Total elapsed time: 0.052 seconds.

tnom = 27
temp = 27
method = modified trap
totiter = 2324
traniter = 2321
tranpoints = 1157
accept = 1132
rejected = 25
matrix size = 7
fillins = 0
solver = Normal
Avg thread counts: 1.4/1.8/1.8/1.4
Matrix Compiler1:      12 opcodes  0.3/[0.2]/0.2
Matrix Compiler2: 387 bytes object code size  0.2/0.3/[0.1]

